<?xml version="1.0" encoding="UTF-8"?>

<!-- generated on Wed 04 Apr 2018 12:48:56 BST by Netedit Version 0.32.0
<?xml version="1.0" encoding="UTF-8"?>

<configuration xmlns:xsi="http://www.w3.org/2001/XMLSchema-instance" xsi:noNamespaceSchemaLocation="http://sumo.dlr.de/xsd/netconvertConfiguration.xsd">

    <input>
        <sumo-net-file value="/home/jack/Desktop/FiveLanes/fivelanes.net.xml"/>
    </input>

    <output>
        <output-file value="/home/jack/Desktop/FiveLanes/fivelanes.net.xml"/>
    </output>

    <processing>
        <no-internal-links value="true"/>
        <no-turnarounds value="true"/>
        <offset.disable-normalization value="true"/>
        <lefthand value="false"/>
        <junctions.corner-detail value="0"/>
        <rectangular-lane-cut value="false"/>
        <walkingareas value="false"/>
    </processing>

</configuration>
-->

<net version="0.27" xmlns:xsi="http://www.w3.org/2001/XMLSchema-instance" xsi:noNamespaceSchemaLocation="http://sumo.dlr.de/xsd/net_file.xsd">

    <location netOffset="0.00,0.00" convBoundary="0.00,0.00,2000.00,0.00" origBoundary="-10000000000.00,-10000000000.00,10000000000.00,10000000000.00" projParameter="!"/>

    <edge id="gneE0" from="gneJ0" to="gneJ1" priority="1">
        <lane id="gneE0_0" index="0" speed="26.82" length="2000.00" shape="0.00,-14.85 2000.00,-14.85"/>
        <lane id="gneE0_1" index="1" speed="26.82" length="2000.00" shape="0.00,-11.55 2000.00,-11.55"/>
        <lane id="gneE0_2" index="2" speed="26.82" length="2000.00" shape="0.00,-8.25 2000.00,-8.25"/>
        <lane id="gneE0_3" index="3" speed="26.82" length="2000.00" shape="0.00,-4.95 2000.00,-4.95"/>
        <lane id="gneE0_4" index="4" speed="26.82" length="2000.00" shape="0.00,-1.65 2000.00,-1.65"/>
    </edge>

    <junction id="gneJ0" type="dead_end" x="0.00" y="0.00" incLanes="" intLanes="" shape="0.00,-0.05 0.00,-16.45"/>
    <junction id="gneJ1" type="dead_end" x="2000.00" y="0.00" incLanes="gneE0_0 gneE0_1 gneE0_2 gneE0_3 gneE0_4" intLanes="" shape="2000.00,-16.45 2000.00,-0.05"/>

</net>
